14
Energy:       3.3581337
C         -0.4030600000        1.2775200000        0.3106900000
C          0.4279700000        0.1346900000       -0.2729400000
C         -0.0212700000       -1.2535600000        0.2097000000
C          1.0366233468       -1.9771687734        1.0431015429
H          0.0054100000        2.2473400000       -0.0437000000
H         -0.3584500000        1.2581300000        1.4203400000
H         -1.4604600000        1.2138200000       -0.0171500000
H          1.4834100000        0.2838500000        0.0425000000
H          0.3897500000        0.1775100000       -1.3831400000
H         -0.3005350012       -1.8830246210       -0.6630155485
H         -0.9246634429       -1.1217636118        0.8439032172
H          1.9456023936       -2.1877344543        0.4438818554
H          0.6275523971       -2.9480834247        1.3937655816
H          1.3116120324       -1.3671970391        1.9296620325
