14
terachem gradient in au, energy -157.7828635607 , grad_rms 0.513663 , grad_max 1.449896 on atom 2
 C      -0.0652857719      -0.0073147786      0.0009447586
 C       1.2778489178       0.2893228283      0.6209605724
 C      -0.0518839490      -0.0265381968     -0.0153956201
 C       0.0291956085      -0.0049642865      0.0133844804
 H       0.0075202663      -0.0007712726     -0.0068676605
 H       0.0020098291      -0.0010978846      0.0061702563
 H      -0.0123233623       0.0156590457      0.0059053694
 H      -1.0721419314      -0.2795467969     -0.5851887287
 H      -0.0670167454      -0.0031611600     -0.0446308769
 H      -0.0027215797       0.0024024421      0.0059022254
 H       0.0134701537       0.0130105552     -0.0052585339
 H      -0.0671457899       0.0159355217      0.0108560439
 H       0.0003916232      -0.0102812017      0.0001111390
 H       0.0080827354      -0.0026548149     -0.0068934229
