14
Energy:       3.3581337
C         -0.4030600000        1.2775200000        0.3106900000
C          0.4279700000        0.1346900000       -0.2729400000
C         -0.0212700000       -1.2535600000        0.2097000000
C          1.1091230333       -2.0744849694        0.8306669127
H          0.0054100000        2.2473400000       -0.0437000000
H         -0.3584500000        1.2581300000        1.4203400000
H         -1.4604600000        1.2138200000       -0.0171500000
H          1.4834100000        0.2838500000        0.0425000000
H          0.3897500000        0.1775100000       -1.3831400000
H         -0.4691787155       -1.8190968902       -0.6361090133
H         -0.8058022085       -1.1114162026        0.9843018823
H          1.8999903498       -2.2973864603        0.0860268249
H          0.7034092678       -3.0413283474        1.1961662874
H          1.5538260044       -1.5289328281        1.6899025756
