14
Energy:       3.3581337
C         -0.4030600000        1.2775200000        0.3106900000
C          0.4279700000        0.1346900000       -0.2729400000
C         -0.0212700000       -1.2535600000        0.2097000000
C         -0.2698936828       -1.3201935842        1.7167011120
H          0.0054100000        2.2473400000       -0.0437000000
H         -0.3584500000        1.2581300000        1.4203400000
H         -1.4604600000        1.2138200000       -0.0171500000
H          1.4834100000        0.2838500000        0.0425000000
H          0.3897500000        0.1775100000       -1.3831400000
H          0.7373999061       -2.0145435635       -0.0752053673
H         -0.9736613816       -1.5054364459       -0.3052879936
H          0.6624746075       -1.1318483493        2.2866664540
H         -0.6337933406       -2.3344371377        1.9847806212
H         -1.0404888181       -0.5771282222        2.0128612055
