14
Energy:       3.3581337
C         -0.4030600000        1.2775200000        0.3106900000
C          0.4279700000        0.1346900000       -0.2729400000
C         -0.0212700000       -1.2535600000        0.2097000000
C          0.9265967844       -1.8745017347        1.2359972488
H          0.0054100000        2.2473400000       -0.0437000000
H         -0.3584500000        1.2581300000        1.4203400000
H         -1.4604600000        1.2138200000       -0.0171500000
H          1.4834100000        0.2838500000        0.0425000000
H          0.3897500000        0.1775100000       -1.3831400000
H         -0.1267468123       -1.9381503495       -0.6598158274
H         -1.0191324091       -1.1455620296        0.6875187652
H          1.9284105636       -2.0590967815        0.7978889655
H          0.5167686661       -2.8503619025        1.5717313944
H          1.0266505407       -1.2089570311        2.1195770635
