14
Energy:       3.3581337
C         -0.4030600000        1.2775200000        0.3106900000
C          0.4279700000        0.1346900000       -0.2729400000
C         -0.0212700000       -1.2535600000        0.2097000000
C         -1.3949337938       -1.2467562361        0.8807496346
H          0.0054100000        2.2473400000       -0.0437000000
H         -0.3584500000        1.2581300000        1.4203400000
H         -1.4604600000        1.2138200000       -0.0171500000
H          1.4834100000        0.2838500000        0.0425000000
H          0.3897500000        0.1775100000       -1.3831400000
H          0.7329242178       -1.6697305245        0.9124376858
H         -0.0764056940       -1.9243312222       -0.6750201502
H         -1.3873047593       -0.6356387950        1.8060184163
H         -1.6725058081       -2.2848269476        1.1606470176
H         -2.1624133427       -0.8504197107        0.1824901582
