14
Energy:       3.3581337
C         -0.4030600000        1.2775200000        0.3106900000
C          0.4279700000        0.1346900000       -0.2729400000
C         -0.0212700000       -1.2535600000        0.2097000000
C         -1.4823849221       -1.2960249984        0.6576352966
H          0.0054100000        2.2473400000       -0.0437000000
H         -0.3584500000        1.2581300000        1.4203400000
H         -1.4604600000        1.2138200000       -0.0171500000
H          1.4834100000        0.2838500000        0.0425000000
H          0.3897500000        0.1775100000       -1.3831400000
H          0.6322627201       -1.5917720460        1.0429794695
H          0.0982549769       -1.9667776961       -0.6345381295
H         -1.6521595287       -0.6431920424        1.5377664015
H         -1.7479495908       -2.3344420447        0.9477128980
H         -2.1487250262       -0.9781612524       -0.1722004103
