14
-1.5848652912118166e+02 frame 17   xyz file generated by TeraChem
     C    -0.4342151362    1.2769824189    0.2495470708
     C     0.4904000026    0.1402066862   -0.1903533996
     C     0.0276213976   -1.2347478789    0.3002566826
     C     0.9565041211   -2.3706911887   -0.1326948551
     H    -0.0871759506    2.2463283499   -0.1220288188
     H    -0.4895105178    1.3386957012    1.3422121363
     H    -1.4533148873    1.1222282181   -0.1223669650
     H     1.5078871321    0.3304933669    0.1774207910
     H     0.5630430341    0.1256669173   -1.2862068251
     H    -0.9879348612   -1.4272717072   -0.0716453231
     H    -0.0498976081   -1.2184776503    1.3957652690
     H     1.0367050805   -2.4189066220   -1.2245234917
     H     0.5960868411   -3.3427798700    0.2184424245
     H     1.9674822580   -2.2262152295    0.2645612230
