14
Energy:       3.3581337
C         -0.4030600000        1.2775200000        0.3106900000
C          0.4279700000        0.1346900000       -0.2729400000
C         -0.0212700000       -1.2535600000        0.2097000000
C         -1.1147290441       -1.1997310890        1.2768250578
H          0.0054100000        2.2473400000       -0.0437000000
H         -0.3584500000        1.2581300000        1.4203400000
H         -1.4604600000        1.2138200000       -0.0171500000
H          1.4834100000        0.2838500000        0.0425000000
H          0.3897500000        0.1775100000       -1.3831400000
H          0.8532164775       -1.8163857726        0.6025710080
H         -0.4245229226       -1.8082564253       -0.6651729494
H         -0.7514169625       -0.7044276729        2.2000389575
H         -1.4200950497       -2.2336563110        1.5427758204
H         -2.0028555320       -0.6558280699        0.8907232019
