14
Energy:       3.3581337
C         -0.4030600000        1.2775200000        0.3106900000
C          0.4279700000        0.1346900000       -0.2729400000
C         -0.0212700000       -1.2535600000        0.2097000000
C         -1.1792731007       -1.8325254340       -0.6034014492
H          0.0054100000        2.2473400000       -0.0437000000
H         -0.3584500000        1.2581300000        1.4203400000
H         -1.4604600000        1.2138200000       -0.0171500000
H          1.4834100000        0.2838500000        0.0425000000
H          0.3897500000        0.1775100000       -1.3831400000
H         -0.3093503864       -1.2038755127        1.2822615233
H          0.8425852723       -1.9468252585        0.1156730286
H         -2.0916748310       -1.2103924219       -0.5028099726
H         -1.4183117853       -2.8503704250       -0.2294607432
H         -0.8981479077       -1.9054761924       -1.6754651639
