14
Energy:       3.3581337
C         -0.4030600000        1.2775200000        0.3106900000
C          0.4279700000        0.1346900000       -0.2729400000
C         -0.0212700000       -1.2535600000        0.2097000000
C         -0.8067336551       -2.0362962013       -0.8427623543
H          0.0054100000        2.2473400000       -0.0437000000
H         -0.3584500000        1.2581300000        1.4203400000
H         -1.4604600000        1.2138200000       -0.0171500000
H          1.4834100000        0.2838500000        0.0425000000
H          0.3897500000        0.1775100000       -1.3831400000
H         -0.6353059208       -1.1510758661        1.1307341844
H          0.8879321941       -1.8403812384        0.4640539378
H         -1.7573616765       -1.5252609196       -1.0973097040
H         -1.0570683627       -3.0413361009       -0.4425038073
H         -0.1972973710       -2.1626048812       -1.7627119881
