14
Energy:       3.3581337
C         -0.4030600000        1.2775200000        0.3106900000
C          0.4279700000        0.1346900000       -0.2729400000
C         -0.0212700000       -1.2535600000        0.2097000000
C         -1.5308241348       -1.3606391269        0.4266942311
H          0.0054100000        2.2473400000       -0.0437000000
H         -0.3584500000        1.2581300000        1.4203400000
H         -1.4604600000        1.2138200000       -0.0171500000
H          1.4834100000        0.2838500000        0.0425000000
H          0.3897500000        0.1775100000       -1.3831400000
H          0.5084031103       -1.5138611273        1.1517917142
H          0.2662270575       -1.9969998533       -0.5651202036
H         -1.8705019965       -0.6786897627        1.2324293379
H         -1.7861418080       -2.3982257251        0.7286983821
H         -2.0726436390       -1.1212192306       -0.5128713780
