14
Energy:       3.3581337
C         -0.4030600000        1.2775200000        0.3106900000
C          0.4279700000        0.1346900000       -0.2729400000
C         -0.0212700000       -1.2535600000        0.2097000000
C         -1.0052607475       -1.9364679013       -0.7404079565
H          0.0054100000        2.2473400000       -0.0437000000
H         -0.3584500000        1.2581300000        1.4203400000
H         -1.4604600000        1.2138200000       -0.0171500000
H          1.4834100000        0.2838500000        0.0425000000
H          0.3897500000        0.1775100000       -1.3831400000
H         -0.4775902581       -1.1710603536        1.2200527646
H          0.8804868887       -1.8986808629        0.2894327240
H         -1.9523347405       -1.3648175472       -0.8172960036
H         -1.2487316139       -2.9480916883       -0.3526982444
H         -0.5547023891       -2.0425528181       -1.7500697572
