14
	Energy:       3.3581337
C         -0.40306        1.27752        0.31069
C          0.42797        0.13469       -0.27294
C         -0.02127       -1.25356        0.20970
C         -1.43351       -1.62496       -0.24301
H          0.00541        2.24734       -0.04370
H         -0.35845        1.25813        1.42034
H         -1.46046        1.21382       -0.01715
H          1.48341        0.28385        0.04250
H          0.38975        0.17751       -1.38314
H          0.03809       -1.30365        1.31867
H          0.68091       -2.00715       -0.20833
H         -2.20834       -0.93804        0.19060
H         -1.67144       -2.65342        0.10143
H         -1.50216       -1.59730       -1.35125
