14
Energy:       3.3581337
C         -0.4030600000        1.2775200000        0.3106900000
C          0.4279700000        0.1346900000       -0.2729400000
C         -0.0212700000       -1.2535600000        0.2097000000
C          1.1418929776       -2.1634934193        0.6051480771
H          0.0054100000        2.2473400000       -0.0437000000
H         -0.3584500000        1.2581300000        1.4203400000
H         -1.4604600000        1.2138200000       -0.0171500000
H          1.4834100000        0.2838500000        0.0425000000
H          0.3897500000        0.1775100000       -1.3831400000
H         -0.6275538012       -1.7483095687       -0.5799137633
H         -0.6661602442       -1.1148342029        1.1044488181
H          1.7929603310       -2.3847210788       -0.2648028821
H          0.7420344055       -3.1272634708        0.9849374664
H          1.7459329077       -1.6892501380        1.4075836625
