14
Energy:       3.3581337
C         -0.4030600000        1.2775200000        0.3106900000
C          0.4279700000        0.1346900000       -0.2729400000
C         -0.0212700000       -1.2535600000        0.2097000000
C          0.1046684948       -2.3375648222       -0.8609909744
H          0.0054100000        2.2473400000       -0.0437000000
H         -0.3584500000        1.2581300000        1.4203400000
H         -1.4604600000        1.2138200000       -0.0171500000
H          1.4834100000        0.2838500000        0.0425000000
H          0.3897500000        0.1775100000       -1.3831400000
H         -1.0728356070       -1.2054407772        0.5671092795
H          0.6224535739       -1.5445043683        1.0679977667
H         -0.5608841056       -2.1300876066       -1.7233354464
H         -0.1923059959       -3.3166800926       -0.4295758503
H          1.1553031347       -2.4095634595       -1.2140587374
