14
Energy:       3.3581337
C         -0.4030600000        1.2775200000        0.3106900000
C          0.4279700000        0.1346900000       -0.2729400000
C         -0.0212700000       -1.2535600000        0.2097000000
C         -0.5015551481       -1.2645639511        1.6610825172
H          0.0054100000        2.2473400000       -0.0437000000
H         -0.3584500000        1.2581300000        1.4203400000
H         -1.4604600000        1.2138200000       -0.0171500000
H          1.4834100000        0.2838500000        0.0425000000
H          0.3897500000        0.1775100000       -1.3831400000
H          0.8103906058       -1.9812338438        0.0885451719
H         -0.8662070168       -1.5844092435       -0.4324245495
H          0.3181464992       -0.9956868477        2.3578173019
H         -0.8515816070       -2.2848233321        1.9247714319
H         -1.3458511024       -0.5549335795        1.7924707699
