14
Energy:       3.3581337
C         -0.4030600000        1.2775200000        0.3106900000
C          0.4279700000        0.1346900000       -0.2729400000
C         -0.0212700000       -1.2535600000        0.2097000000
C          0.7823864475       -1.7696033394        1.4034929921
H          0.0054100000        2.2473400000       -0.0437000000
H         -0.3584500000        1.2581300000        1.4203400000
H         -1.4604600000        1.2138200000       -0.0171500000
H          1.4834100000        0.2838500000        0.0425000000
H          0.3897500000        0.1775100000       -1.3831400000
H          0.0469053851       -1.9827991083       -0.6266070718
H         -1.0863387152       -1.1820883533        0.5199001886
H          1.8489372247       -1.9153820324        1.1372918281
H          0.3744241823       -2.7511329998        1.7246563247
H          0.7075999401       -1.0590208467        2.2538771964
