14
Energy:       3.3581337
C         -0.4030600000        1.2775200000        0.3106900000
C          0.4279700000        0.1346900000       -0.2729400000
C         -0.0212700000       -1.2535600000        0.2097000000
C          1.1339374816       -2.2414896465        0.3733973117
H          0.0054100000        2.2473400000       -0.0437000000
H         -0.3584500000        1.2581300000        1.4203400000
H         -1.4604600000        1.2138200000       -0.0171500000
H          1.4834100000        0.2838500000        0.0425000000
H          0.3897500000        0.1775100000       -1.3831400000
H         -0.7708481115       -1.6728134936       -0.4961372627
H         -0.5099805005       -1.1319137585        1.2006934208
H          1.6277643901       -2.4470846916       -0.5979474825
H          0.7422542051       -3.2032776996        0.7664971995
H          1.8820956714       -1.8432778084        1.0912834105
