14
Energy:       3.3581337
C         -0.4030600000        1.2775200000        0.3106900000
C          0.4279700000        0.1346900000       -0.2729400000
C         -0.0212700000       -1.2535600000        0.2097000000
C         -0.0360612347       -1.3904342332        1.7323138005
H          0.0054100000        2.2473400000       -0.0437000000
H         -0.3584500000        1.2581300000        1.4203400000
H         -1.4604600000        1.2138200000       -0.0171500000
H          1.4834100000        0.2838500000        0.0425000000
H          0.3897500000        0.1775100000       -1.3831400000
H          0.6380165541       -2.0350551443       -0.2267099652
H         -1.0552347005       -1.4282569522       -0.1592196313
H          0.9829860304       -1.2811067491        2.1556756081
H         -0.4126065825       -2.3982196758        2.0071986362
H         -0.7064066595       -0.6268244872        2.1808792503
