14
Energy:       3.3581337
C         -0.4030600000        1.2775200000        0.3106900000
C          0.4279700000        0.1346900000       -0.2729400000
C         -0.0212700000       -1.2535600000        0.2097000000
C         -1.5060096865       -1.5276438040       -0.0305753699
H          0.0054100000        2.2473400000       -0.0437000000
H         -0.3584500000        1.2581300000        1.4203400000
H         -1.4604600000        1.2138200000       -0.0171500000
H          1.4834100000        0.2838500000        0.0425000000
H          0.3897500000        0.1775100000       -1.3831400000
H          0.2067337143       -1.3675777308        1.2917634648
H          0.5620487655       -2.0174974092       -0.3487286651
H         -2.1427279562       -0.8283879940        0.5484550305
H         -1.7472968707       -2.5601750773        0.2990292942
H         -1.7443739720       -1.4355642110       -1.1114905431
