14
Energy:       3.3581337
C         -0.4030600000        1.2775200000        0.3106900000
C          0.4279700000        0.1346900000       -0.2729400000
C         -0.0212700000       -1.2535600000        0.2097000000
C          0.7178423909       -2.4023976844       -0.4767335149
H          0.0054100000        2.2473400000       -0.0437000000
H         -0.3584500000        1.2581300000        1.4203400000
H         -1.4604600000        1.2138200000       -0.0171500000
H          1.4834100000        0.2838500000        0.0425000000
H          0.3897500000        0.1775100000       -1.3831400000
H         -1.1156614788       -1.3702888484        0.0530834435
H          0.1807694796       -1.3206571864        1.3007461666
H          0.5086793561       -2.4213467814       -1.5655571021
H          0.3762074468       -3.3678471138       -0.0475802388
H          1.8123075644       -2.3086689691       -0.3123111694
