14
Energy:       3.3581337
C         -0.4030600000        1.2775200000        0.3106900000
C          0.4279700000        0.1346900000       -0.2729400000
C         -0.0212700000       -1.2535600000        0.2097000000
C          0.8742412548       -2.3877989268       -0.2891664862
H          0.0054100000        2.2473400000       -0.0437000000
H         -0.3584500000        1.2581300000        1.4203400000
H         -1.4604600000        1.2138200000       -0.0171500000
H          1.4834100000        0.2838500000        0.0425000000
H          0.3897500000        0.1775100000       -1.3831400000
H         -1.0697740559       -1.4413067872       -0.1084783576
H          0.0086945361       -1.2579634655        1.3209094571
H          0.8412475600       -2.4695149324       -1.3945528249
H          0.5182151781       -3.3506154613        0.1341647361
H          1.9227447081       -2.2226210714        0.0379887984
