14
Energy:       3.3581337
C         -0.4030600000        1.2775200000        0.3106900000
C          0.4279700000        0.1346900000       -0.2729400000
C         -0.0212700000       -1.2535600000        0.2097000000
C          0.6083740942       -1.6656608721        1.5404994994
H          0.0054100000        2.2473400000       -0.0437000000
H         -0.3584500000        1.2581300000        1.4203400000
H         -1.4604600000        1.2138200000       -0.0171500000
H          1.4834100000        0.2838500000        0.0425000000
H          0.3897500000        0.1775100000       -1.3831400000
H          0.2151452569       -2.0156142674       -0.5643983131
H         -1.1242403317       -1.2302327489        0.3461404932
H          1.7095971341       -1.7609569071        1.4517778590
H          0.2048440110       -2.6534117365        1.8478938259
H          0.3641544215       -0.9219442209        2.3284817897
